Circuit: * C:\Users\anton\OneDrive\Dokumente\TRACKER\Digitizer\sim\afe.asc

Direct Newton iteration for .op point succeeded.

Date: Fri Jan 24 21:49:09 2025
Total elapsed time: 0.038 seconds.

tnom = 27
temp = 27
method = trap
totiter = 3
traniter = 0
tranpoints = 0
accept = 0
rejected = 0
matrix size = 9
fillins = 0
solver = Normal
Avg thread counts: 16.0/0.0/16.0/10.8
Matrix Compiler1:      18 opcodes
Matrix Compiler2: 613 bytes object code size
